instances/data_GOC/Phase_0_RTS96/scenario_22/powersystem.raw
 0,  100.000000
rts96_spring_wday.raw / File written by to_psse.gms
5 / 19 / 2015
101, ' 101 ',138,2,1,1,1,1.00,0.00,1.1,0.9,1.1,0.9
102, ' 102 ',138,2,1,1,1,1.00,0.00,1.1,0.9,1.1,0.9
103, ' 103 ',138,1,1,1,1,1.00,0.00,1.1,0.9,1.1,0.9
104, ' 104 ',138,1,1,1,1,1.00,0.00,1.1,0.9,1.1,0.9
105, ' 105 ',138,1,1,1,1,1.00,0.00,1.1,0.9,1.1,0.9
106, ' 106 ',138,1,1,1,1,1.00,0.00,1.1,0.9,1.1,0.9
107, ' 107 ',138,2,1,1,1,1.00,0.00,1.1,0.9,1.1,0.9
108, ' 108 ',138,1,1,1,1,1.00,0.00,1.1,0.9,1.1,0.9
109, ' 109 ',138,1,1,1,1,1.00,0.00,1.1,0.9,1.1,0.9
110, ' 110 ',138,1,1,1,1,1.00,0.00,1.1,0.9,1.1,0.9
111, ' 111 ',230,1,1,1,1,1.00,0.00,1.1,0.9,1.1,0.9
112, ' 112 ',230,1,1,1,1,1.00,0.00,1.1,0.9,1.1,0.9
113, ' 113 ',230,3,1,1,1,1.00,0.00,1.1,0.9,1.1,0.9
114, ' 114 ',230,2,1,1,1,1.00,0.00,1.1,0.9,1.1,0.9
115, ' 115 ',230,2,1,1,1,1.00,0.00,1.1,0.9,1.1,0.9
116, ' 116 ',230,2,1,1,1,1.00,0.00,1.1,0.9,1.1,0.9
117, ' 117 ',230,1,1,1,1,1.00,0.00,1.1,0.9,1.1,0.9
118, ' 118 ',230,2,1,1,1,1.00,0.00,1.1,0.9,1.1,0.9
119, ' 119 ',230,1,1,1,1,1.00,0.00,1.1,0.9,1.1,0.9
120, ' 120 ',230,1,1,1,1,1.00,0.00,1.1,0.9,1.1,0.9
121, ' 121 ',230,2,1,1,1,1.00,0.00,1.1,0.9,1.1,0.9
122, ' 122 ',230,2,1,1,1,1.00,0.00,1.1,0.9,1.1,0.9
123, ' 123 ',230,2,1,1,1,1.00,0.00,1.1,0.9,1.1,0.9
124, ' 124 ',230,1,1,1,1,1.00,0.00,1.1,0.9,1.1,0.9
201, ' 201 ',138,2,1,1,1,1.00,0.00,1.1,0.9,1.1,0.9
202, ' 202 ',138,2,1,1,1,1.00,0.00,1.1,0.9,1.1,0.9
203, ' 203 ',138,1,1,1,1,1.00,0.00,1.1,0.9,1.1,0.9
204, ' 204 ',138,1,1,1,1,1.00,0.00,1.1,0.9,1.1,0.9
205, ' 205 ',138,1,1,1,1,1.00,0.00,1.1,0.9,1.1,0.9
206, ' 206 ',138,1,1,1,1,1.00,0.00,1.1,0.9,1.1,0.9
207, ' 207 ',138,2,1,1,1,1.00,0.00,1.1,0.9,1.1,0.9
208, ' 208 ',138,1,1,1,1,1.00,0.00,1.1,0.9,1.1,0.9
209, ' 209 ',138,1,1,1,1,1.00,0.00,1.1,0.9,1.1,0.9
210, ' 210 ',138,1,1,1,1,1.00,0.00,1.1,0.9,1.1,0.9
211, ' 211 ',230,1,1,1,1,1.00,0.00,1.1,0.9,1.1,0.9
212, ' 212 ',230,1,1,1,1,1.00,0.00,1.1,0.9,1.1,0.9
213, ' 213 ',230,2,1,1,1,1.00,0.00,1.1,0.9,1.1,0.9
214, ' 214 ',230,2,1,1,1,1.00,0.00,1.1,0.9,1.1,0.9
215, ' 215 ',230,2,1,1,1,1.00,0.00,1.1,0.9,1.1,0.9
216, ' 216 ',230,2,1,1,1,1.00,0.00,1.1,0.9,1.1,0.9
217, ' 217 ',230,1,1,1,1,1.00,0.00,1.1,0.9,1.1,0.9
218, ' 218 ',230,2,1,1,1,1.00,0.00,1.1,0.9,1.1,0.9
219, ' 219 ',230,1,1,1,1,1.00,0.00,1.1,0.9,1.1,0.9
220, ' 220 ',230,1,1,1,1,1.00,0.00,1.1,0.9,1.1,0.9
221, ' 221 ',230,2,1,1,1,1.00,0.00,1.1,0.9,1.1,0.9
222, ' 222 ',230,2,1,1,1,1.00,0.00,1.1,0.9,1.1,0.9
223, ' 223 ',230,2,1,1,1,1.00,0.00,1.1,0.9,1.1,0.9
224, ' 224 ',230,1,1,1,1,1.00,0.00,1.1,0.9,1.1,0.9
301, ' 301 ',138,2,1,1,1,1.00,0.00,1.1,0.9,1.1,0.9
302, ' 302 ',138,2,1,1,1,1.00,0.00,1.1,0.9,1.1,0.9
303, ' 303 ',138,1,1,1,1,1.00,0.00,1.1,0.9,1.1,0.9
304, ' 304 ',138,1,1,1,1,1.00,0.00,1.1,0.9,1.1,0.9
305, ' 305 ',138,1,1,1,1,1.00,0.00,1.1,0.9,1.1,0.9
306, ' 306 ',138,1,1,1,1,1.00,0.00,1.1,0.9,1.1,0.9
307, ' 307 ',138,2,1,1,1,1.00,0.00,1.1,0.9,1.1,0.9
308, ' 308 ',138,1,1,1,1,1.00,0.00,1.1,0.9,1.1,0.9
309, ' 309 ',138,1,1,1,1,1.00,0.00,1.1,0.9,1.1,0.9
310, ' 310 ',138,1,1,1,1,1.00,0.00,1.1,0.9,1.1,0.9
311, ' 311 ',230,1,1,1,1,1.00,0.00,1.1,0.9,1.1,0.9
312, ' 312 ',230,1,1,1,1,1.00,0.00,1.1,0.9,1.1,0.9
313, ' 313 ',230,2,1,1,1,1.00,0.00,1.1,0.9,1.1,0.9
314, ' 314 ',230,2,1,1,1,1.00,0.00,1.1,0.9,1.1,0.9
315, ' 315 ',230,2,1,1,1,1.00,0.00,1.1,0.9,1.1,0.9
316, ' 316 ',230,2,1,1,1,1.00,0.00,1.1,0.9,1.1,0.9
317, ' 317 ',230,1,1,1,1,1.00,0.00,1.1,0.9,1.1,0.9
318, ' 318 ',230,2,1,1,1,1.00,0.00,1.1,0.9,1.1,0.9
319, ' 319 ',230,1,1,1,1,1.00,0.00,1.1,0.9,1.1,0.9
320, ' 320 ',230,1,1,1,1,1.00,0.00,1.1,0.9,1.1,0.9
321, ' 321 ',230,2,1,1,1,1.00,0.00,1.1,0.9,1.1,0.9
322, ' 322 ',230,2,1,1,1,1.00,0.00,1.1,0.9,1.1,0.9
323, ' 323 ',230,2,1,1,1,1.00,0.00,1.1,0.9,1.1,0.9
324, ' 324 ',230,1,1,1,1,1.00,0.00,1.1,0.9,1.1,0.9
325, ' 325 ',230,1,1,1,1,1.00,0.00,1.1,0.9,1.1,0.9
0 / END OF BUS DATA, BEGIN LOAD DATA
101, '1 ',1,11,11,59.130987649289885,12.317761504420359,0.0,0.0,0.0,0.0,1,1,0
102, '1 ',1,11,12,61.36155239388077,16.314875554296187,0.0,0.0,0.0,0.0,1,1,0
103, '1 ',1,11,11,159.2275389230065,32.63106333933561,0.0,0.0,0.0,0.0,1,1,0
104, '1 ',1,11,11,55.64260291298283,9.467162103269482,0.0,0.0,0.0,0.0,1,1,0
105, '1 ',1,11,11,52.05120741122919,9.920640066828298,0.0,0.0,0.0,0.0,1,1,0
106, '1 ',1,11,12,111.43131344156228,23.248019656148738,0.0,0.0,0.0,0.0,1,1,0
107, '1 ',1,11,12,104.21078167340602,21.293929838837357,0.0,0.0,0.0,0.0,1,1,0
108, '1 ',1,11,12,123.83564214830989,29.1774436018893,0.0,0.0,0.0,0.0,1,1,0
109, '1 ',1,11,13,94.34195693483808,19.96592415801175,0.0,0.0,0.0,0.0,1,1,0
110, '1 ',1,11,13,147.5178459429948,33.699953135333956,0.0,0.0,0.0,0.0,1,1,0
111, '1 ',1,11,13,0.0,0.0,0.0,0.0,0.0,0.0,1,1,0
112, '1 ',1,11,13,0.0,0.0,0.0,0.0,0.0,0.0,1,1,0
113, '1 ',1,12,14,180.6732677435414,27.75223684145361,0.0,0.0,0.0,0.0,1,1,0
114, '1 ',1,12,16,155.25217419107707,23.5171643790219,0.0,0.0,0.0,0.0,1,1,0
115, '1 ',1,12,16,191.53135101575373,35.5858461538285,0.0,0.0,0.0,0.0,1,1,0
116, '1 ',1,12,16,77.32939962567296,12.162313202532939,0.0,0.0,0.0,0.0,1,1,0
117, '1 ',1,12,17,0.0,0.0,0.0,0.0,0.0,0.0,1,1,0
118, '1 ',1,12,17,219.50420311121783,41.520844114496,0.0,0.0,0.0,0.0,1,1,0
119, '1 ',1,12,15,128.69240019036053,18.015303123447485,0.0,0.0,0.0,0.0,1,1,0
120, '1 ',1,12,15,68.7194751740098,12.850599530374167,0.0,0.0,0.0,0.0,1,1,0
121, '1 ',1,12,17,0.0,0.0,0.0,0.0,0.0,0.0,1,1,0
122, '1 ',1,12,17,0.0,0.0,0.0,0.0,0.0,0.0,1,1,0
123, '1 ',1,12,15,0.0,0.0,0.0,0.0,0.0,0.0,1,1,0
124, '1 ',1,12,16,0.0,0.0,0.0,0.0,0.0,0.0,1,1,0
201, '1 ',1,21,21,70.55961856446247,17.688174082458392,0.0,0.0,0.0,0.0,1,1,0
202, '1 ',1,21,22,60.35132992815525,11.827641639263367,0.0,0.0,0.0,0.0,1,1,0
203, '1 ',1,21,21,123.63717732131201,32.1615232549923,0.0,0.0,0.0,0.0,1,1,0
204, '1 ',1,21,21,38.63194764781845,11.567098792256322,0.0,0.0,0.0,0.0,1,1,0
205, '1 ',1,21,21,41.533189437513705,9.90397420484852,0.0,0.0,0.0,0.0,1,1,0
206, '1 ',1,21,22,95.03529861170725,23.67173080134429,0.0,0.0,0.0,0.0,1,1,0
207, '1 ',1,21,22,60.89733397053787,16.44117546040099,0.0,0.0,0.0,0.0,1,1,0
208, '1 ',1,21,22,111.5338841416554,23.25822611136641,0.0,0.0,0.0,0.0,1,1,0
209, '1 ',1,21,23,129.48451942425456,24.583103090610916,0.0,0.0,0.0,0.0,1,1,0
210, '1 ',1,21,23,116.62810788015926,33.76485082607344,0.0,0.0,0.0,0.0,1,1,0
211, '1 ',1,21,23,0.0,0.0,0.0,0.0,0.0,0.0,1,1,0
212, '1 ',1,21,23,0.0,0.0,0.0,0.0,0.0,0.0,1,1,0
213, '1 ',1,22,24,179.64745451998758,47.274259238435235,0.0,0.0,0.0,0.0,1,1,0
214, '1 ',1,22,26,127.7827714865257,27.381432804684206,0.0,0.0,0.0,0.0,1,1,0
215, '1 ',1,22,26,204.4459586361748,45.99042749176025,0.0,0.0,0.0,0.0,1,1,0
216, '1 ',1,22,26,66.99592122317758,10.823726562146096,0.0,0.0,0.0,0.0,1,1,0
217, '1 ',1,22,27,0.0,0.0,0.0,0.0,0.0,0.0,1,1,0
218, '1 ',1,22,27,209.0858989998062,52.11444032435474,0.0,0.0,0.0,0.0,1,1,0
219, '1 ',1,22,25,144.38446038372197,27.082311068348027,0.0,0.0,0.0,0.0,1,1,0
220, '1 ',1,22,25,67.25685977067947,18.162331163901463,0.0,0.0,0.0,0.0,1,1,0
221, '1 ',1,22,27,0.0,0.0,0.0,0.0,0.0,0.0,1,1,0
222, '1 ',1,22,27,0.0,0.0,0.0,0.0,0.0,0.0,1,1,0
223, '1 ',1,22,25,0.0,0.0,0.0,0.0,0.0,0.0,1,1,0
224, '1 ',1,22,26,0.0,0.0,0.0,0.0,0.0,0.0,1,1,0
301, '1 ',1,31,31,69.73379712017923,17.01888242973732,0.0,0.0,0.0,0.0,1,1,0
302, '1 ',1,31,32,49.55487090490661,10.686674463766627,0.0,0.0,0.0,0.0,1,1,0
303, '1 ',1,31,31,117.15738136810809,30.293372583540854,0.0,0.0,0.0,0.0,1,1,0
304, '1 ',1,31,31,42.99128862713864,9.07676908009057,0.0,0.0,0.0,0.0,1,1,0
305, '1 ',1,31,31,56.762234797895466,9.053194026914891,0.0,0.0,0.0,0.0,1,1,0
306, '1 ',1,31,32,107.58860501077473,15.078328419794328,0.0,0.0,0.0,0.0,1,1,0
307, '1 ',1,31,32,101.67594626895733,21.67900655714795,0.0,0.0,0.0,0.0,1,1,0
308, '1 ',1,31,32,122.15130896391304,19.04478544832091,0.0,0.0,0.0,0.0,1,1,0
309, '1 ',1,31,33,101.90760883761453,28.722704472185303,0.0,0.0,0.0,0.0,1,1,0
310, '1 ',1,31,33,111.4536044280196,19.526210217833516,0.0,0.0,0.0,0.0,1,1,0
311, '1 ',1,31,33,0.0,0.0,0.0,0.0,0.0,0.0,1,1,0
312, '1 ',1,31,33,0.0,0.0,0.0,0.0,0.0,0.0,1,1,0
313, '1 ',1,32,34,172.94917231866438,37.73060134719237,0.0,0.0,0.0,0.0,1,1,0
314, '1 ',1,32,36,123.35491635008316,30.14300593235339,0.0,0.0,0.0,0.0,1,1,0
315, '1 ',1,32,36,214.3648679240829,50.954325622880454,0.0,0.0,0.0,0.0,1,1,0
316, '1 ',1,32,36,58.98697789345867,16.23853020700626,0.0,0.0,0.0,0.0,1,1,0
317, '1 ',1,32,37,0.0,0.0,0.0,0.0,0.0,0.0,1,1,0
318, '1 ',1,32,37,226.21397330257943,43.67994827322755,0.0,0.0,0.0,0.0,1,1,0
319, '1 ',1,32,35,121.4174209396632,24.58414521151911,0.0,0.0,0.0,0.0,1,1,0
320, '1 ',1,32,35,114.85745156931281,13.659498128120509,0.0,0.0,0.0,0.0,1,1,0
321, '1 ',1,32,37,0.0,0.0,0.0,0.0,0.0,0.0,1,1,0
322, '1 ',1,32,37,0.0,0.0,0.0,0.0,0.0,0.0,1,1,0
323, '1 ',1,32,35,0.0,0.0,0.0,0.0,0.0,0.0,1,1,0
324, '1 ',1,32,36,0.0,0.0,0.0,0.0,0.0,0.0,1,1,0
325, '1 ',1,32,35,0.0,0.0,0.0,0.0,0.0,0.0,1,1,0
0 / END OF LOAD DATA, BEGIN FIXED SHUNT DATA
0 / END OF FIXED SHUNT DATA, BEGIN GENERATOR DATA
101,1,10,0,8.389832839835435,-2.9689979455433786,1.035,0,24,0,1,0,0,1,1,100,19.82930326834321,15.183376118494198,1,1,0,1
101,2,10,0,12.240649607032537,-0.5535819693468511,1.035,0,24,0,1,0,0,1,1,100,19.743501849472523,14.535308977002279,1,1,0,1
101,3,76,14.1,24.973720592446625,-39.999623285839334,1.035,0,89,0,1,0,0,1,1,100,77.07790727168322,66.07033352965239,1,1,0,1
101,4,76,14.1,34.51107699936256,-8.380089043639593,1.035,0,89,0,1,0,0,1,1,100,88.72283961512149,34.85885251261294,1,1,0,1
102,5,10,0,8.24761528102681,-3.0009762081317604,1.035,0,24,0,1,0,0,1,1,100,22.13628514483571,17.599038678295912,1,1,0,1
102,6,10,0,9.119950747583061,-2.765422448515892,1.035,0,24,0,1,0,0,1,1,100,19.70675969030708,14.703595714550467,1,1,0,1
102,7,76,7,33.322106905281544,-33.16318542137742,1.035,0,89,0,1,0,0,1,1,100,98.13559763245284,29.166963704898947,1,1,0,1
102,8,76,7,29.452125553507358,-32.699554643593736,1.035,0,89,0,1,0,0,1,1,100,66.38286149185151,10.375823747329427,1,1,0,1
107,9,80,17.2,53.61298257485032,-18.907231383025646,1.025,0,118,0,1,0,0,1,1,100,116.75723711028697,34.08813157118858,1,1,0,1
107,10,80,17.2,64.83089079055935,16.554223383776844,1.025,0,118,0,1,0,0,1,1,100,100.27218921575695,16.57304784632288,1,1,0,1
107,11,80,17.2,61.32977017946541,-5.4768254198133945,1.025,0,118,0,1,0,0,1,1,100,111.95631143637002,41.11745386268012,1,1,0,1
113,12,95.1,40.7,76.44852346554399,-0.5841994173824787,1.02,0,232,0,1,0,0,1,1,100,171.30737392348237,33.029304045552834,1,1,0,1
113,13,95.1,40.7,60.686216842383146,0.49846139922738075,1.02,0,232,0,1,0,0,1,1,100,250.62076722648928,153.45172183181393,1,1,0,1
113,14,95.1,40.7,87.36671494320035,17.154086753726006,1.02,0,232,0,1,0,0,1,1,100,249.6849958272185,112.73845894780703,1,1,0,1
114,15,0,13.7,251.85609362088144,71.12850372213873,0.98,0,100,0,1,0,0,1,1,100,0.0,0.0,1,1,0,1
115,16,12,0,4.441842616349458,-2.239794737007469,1.014,0,14,0,1,0,0,1,1,100,8.567085156217217,2.158906132387712,1,1,0,1
115,17,12,0,4.792789832688868,0.26267823474481755,1.014,0,14,0,1,0,0,1,1,100,14.378996234200896,3.5342951306328203,1,1,0,1
115,18,12,0,6.0984716319479055,-1.164902595710008,1.014,0,14,0,1,0,0,1,1,100,11.968817927129567,2.6503047983720904,1,1,0,1
115,19,12,0,5.48073304099962,-0.11918340520933413,1.014,0,14,0,1,0,0,1,1,100,14.569783907197417,7.123283106945457,1,1,0,1
115,20,12,0,5.027682976238429,0.7897613779641688,1.014,0,14,0,1,0,0,1,1,100,13.12550264429301,3.543379378281534,1,1,0,1
115,21,155,0.05,74.09288343414664,-89.69464075798169,1.014,0,182,0,1,0,0,1,1,100,188.4035883108154,80.45288680635859,1,1,0,1
116,22,155,25.22,80.26901085674763,-69.04487037332729,1.017,0,182,0,1,0,0,1,1,100,187.90932609769516,111.52841652525822,1,1,0,1
118,23,400,137.4,167.77706024236977,-112.40841457387432,1.05,0,471,0,1,0,0,1,1,100,505.30901126563543,183.43883283436293,1,1,0,1
121,24,400,108.2,223.6669377516955,20.00774208921939,1.05,0,471,0,1,0,0,1,1,100,396.8252832069993,163.63993496634066,1,1,0,1
122,25,50,-4.96,16.16256578937173,-6.432061710581181,1.05,0,53,0,1,0,0,1,1,100,58.62612743163481,28.7564011758173,1,1,0,1
122,26,50,-4.96,16.153244198858737,-13.512307045981288,1.05,0,53,0,1,0,0,1,1,100,53.03457798669115,43.49862655069069,1,1,0,1
122,27,50,-4.96,13.339548832178115,-11.51045995717868,1.05,0,53,0,1,0,0,1,1,100,53.31967100966721,3.415565190508163,1,1,0,1
122,28,50,-4.96,18.588671550899743,-3.497256789635866,1.05,0,53,0,1,0,0,1,1,100,48.971281787380576,20.546332360861282,1,1,0,1
122,29,50,-4.96,18.149765922874213,-9.653934423346072,1.05,0,53,0,1,0,0,1,1,100,54.81230287812651,3.4246619464829706,1,1,0,1
122,30,50,-4.96,14.788820344954729,-5.098632786795495,1.05,0,53,0,1,0,0,1,1,100,60.17891318071633,11.038512394297861,1,1,0,1
123,31,155,31.79,70.31498483940959,-46.338366059120744,1.05,0,182,0,1,0,0,1,1,100,143.07733991974965,52.908138735743705,1,1,0,1
123,32,155,31.79,71.38756059482694,-81.61842815298587,1.05,0,182,0,1,0,0,1,1,100,187.38526912103407,62.03979919328121,1,1,0,1
123,33,350,71.78,129.12365617929026,-29.129292346769944,1.05,0,412,0,1,0,0,1,1,100,279.710811288096,79.66301305685192,1,1,0,1
201,34,10,0,10.632587680593133,-2.2254823660477996,1.035,0,24,0,1,0,0,1,1,100,23.917107488960028,18.843250659955665,1,1,0,1
201,35,10,0,7.580301266629248,0.3495713034644723,1.035,0,24,0,1,0,0,1,1,100,23.78253165539354,19.376892358986662,1,1,0,1
201,36,76,14.1,35.33889368874952,-7.06264714198187,1.035,0,89,0,1,0,0,1,1,100,69.40329051222652,12.6021694720909,1,1,0,1
201,37,76,14.1,37.632482414133854,-15.710024721687653,1.035,0,89,0,1,0,0,1,1,100,77.95996107328683,9.329304059930152,1,1,0,1
202,38,10,0,8.483828312251717,-0.45087707648053765,1.035,0,24,0,1,0,0,1,1,100,16.65774809010327,11.68824623964727,1,1,0,1
202,39,10,0,11.030358993913978,-1.121156634762885,1.035,0,24,0,1,0,0,1,1,100,15.704871471971273,10.866827358910815,1,1,0,1
202,40,76,7,36.160094080958515,-27.825458938488737,1.035,0,89,0,1,0,0,1,1,100,92.58341565430166,17.03227701574565,1,1,0,1
202,41,76,7,30.517366665881127,-9.07621772005222,1.035,0,89,0,1,0,0,1,1,100,80.10363949034364,27.15627291951329,1,1,0,1
207,42,80,17.2,58.66798186954111,4.412130740471184,1.025,0,118,0,1,0,0,1,1,100,128.33767478354275,46.896969728404656,1,1,0,1
207,43,80,17.2,58.56177920009941,-19.1868976643309,1.025,0,118,0,1,0,0,1,1,100,115.48819024581462,48.7719796365127,1,1,0,1
207,44,80,17.2,60.122363523580134,-2.6810801653191447,1.025,0,118,0,1,0,0,1,1,100,109.05417234636843,34.26446925732307,1,1,0,1
213,45,95.1,40.7,73.44055333733559,7.745223417878151,1.02,0,232,0,1,0,0,1,1,100,161.1659669103101,11.57584401815663,1,1,0,1
213,46,95.1,40.7,91.74431853741407,12.098776459693909,1.02,0,232,0,1,0,0,1,1,100,201.58592387107203,95.72688188673929,1,1,0,1
213,47,95.1,40.7,90.22167850285769,12.174859374761581,1.02,0,232,0,1,0,0,1,1,100,206.6993600578047,82.85895816691915,1,1,0,1
214,48,0,13.68,220.78503282740712,-64.72174459137022,0.98,0,100,0,1,0,0,1,1,100,0.0,0.0,1,1,0,1
215,49,12,0,7.727734256722034,0.452630000654608,1.014,0,14,0,1,0,0,1,1,100,9.88403909727931,1.7609769402444364,1,1,0,1
215,50,12,0,4.762221661303192,-2.9603928149677827,1.014,0,14,0,1,0,0,1,1,100,8.902877526171505,0.576480144696379,1,1,0,1
215,51,12,0,6.232240982819349,-1.105878064222635,1.014,0,14,0,1,0,0,1,1,100,14.236216220073402,2.1118537130579345,1,1,0,1
215,52,12,0,5.990312707610428,-1.268423655442894,1.014,0,14,0,1,0,0,1,1,100,12.142565962113439,0.9140593885257822,1,1,0,1
215,53,12,0,5.844776450470089,-0.37641326794400953,1.014,0,14,0,1,0,0,1,1,100,10.725418747030197,2.8243615871295322,1,1,0,1
215,54,155,0.048,93.9840325564146,-39.27507875440642,1.014,0,182,0,1,0,0,1,1,100,148.82285398896784,66.75214256119216,1,1,0,1
216,55,155,25.22,95.55765256658196,-50.62013816414401,1.017,0,182,0,1,0,0,1,1,100,133.71212043077685,17.908335533586794,1,1,0,1
218,56,400,137.4,146.37910395860672,-175.51507849246264,1.05,0,471,0,1,0,0,1,1,100,302.03104218468064,174.61365543622176,1,1,0,1
221,57,400,108.2,183.66934917867184,-136.16745951585472,1.05,0,471,0,1,0,0,1,1,100,425.8173244819045,50.39101311936969,1,1,0,1
222,58,50,-4.96,16.028351610898973,-9.00995563911274,1.05,0,53,0,1,0,0,1,1,100,62.44770247256384,26.739842947572484,1,1,0,1
222,59,50,-4.96,12.786613017320633,-20.12071222374216,1.05,0,53,0,1,0,0,1,1,100,54.804370482452214,17.077956672292203,1,1,0,1
222,60,50,-4.96,17.44049531146884,-4.125523235648867,1.05,0,53,0,1,0,0,1,1,100,61.11509106121957,7.282442875005362,1,1,0,1
222,61,50,-4.96,15.258622691780328,-14.516133405361327,1.05,0,53,0,1,0,0,1,1,100,40.0675434875302,38.545178603890186,1,1,0,1
222,62,50,-4.96,17.566730528324843,-13.300479150097818,1.05,0,53,0,1,0,0,1,1,100,48.6138672940433,5.855773366056383,1,1,0,1
222,63,50,-4.96,20.238275855779648,1.0725898095406592,1.05,0,53,0,1,0,0,1,1,100,60.07882946403698,34.94278756758079,1,1,0,1
223,64,155,31.79,91.99174609407783,-28.479923730250448,1.05,0,182,0,1,0,0,1,1,100,144.84965359210037,65.4219468304771,1,1,0,1
223,65,155,31.79,68.21386272832751,-80.64380227169022,1.05,0,182,0,1,0,0,1,1,100,196.54102513962425,67.96498283871915,1,1,0,1
223,66,350,71.78,136.5373337175697,-14.211573763750494,1.05,0,412,0,1,0,0,1,1,100,328.695827992633,166.5054719178006,1,1,0,1
301,67,10,0,10.325738760177046,2.7592949364334345,1.035,0,24,0,1,0,0,1,1,100,19.738646034151316,14.62260075422004,1,1,0,1
301,68,10,0,9.652664259076118,1.4267012402415276,1.035,0,24,0,1,0,0,1,1,100,14.612826726399362,9.572597200665623,1,1,0,1
301,69,76,14.1,32.192519632168114,-31.406015798682347,1.035,0,89,0,1,0,0,1,1,100,58.29470447339117,11.821349791809915,1,1,0,1
301,70,76,14.1,22.10257037077099,-19.31046548183076,1.035,0,89,0,1,0,0,1,1,100,73.21839858852327,17.565200606063016,1,1,0,1
302,71,10,0,8.883735546842217,-1.0105550796724856,1.035,0,24,0,1,0,0,1,1,100,17.055224333889782,11.768174840258435,1,1,0,1
302,72,10,0,7.635331707540899,-3.0357817746698865,1.035,0,24,0,1,0,0,1,1,100,22.768753374926746,18.065075242221358,1,1,0,1
302,73,76,7,34.47158021433279,-21.900484817335382,1.035,0,89,0,1,0,0,1,1,100,62.035672617331144,4.297052339532101,1,1,0,1
302,74,76,7,32.81702709943056,-12.38329997099936,1.035,0,89,0,1,0,0,1,1,100,87.35592136662454,17.67195048805327,1,1,0,1
307,75,80,17.2,49.53971822373568,2.3179812831804085,1.025,0,118,0,1,0,0,1,1,100,105.3354791458696,30.371096733724684,1,1,0,1
307,76,80,17.2,53.002237991429865,-20.36277016717942,1.025,0,118,0,1,0,0,1,1,100,129.3145541101694,43.453562343493104,1,1,0,1
307,77,80,17.2,45.028971634805195,-24.92942014429719,1.025,0,118,0,1,0,0,1,1,100,98.64915973041207,10.272045228630304,1,1,0,1
313,78,95.1,40.7,63.344675913453095,-34.81299228966237,1.02,0,232,0,1,0,0,1,1,100,138.75545998350717,20.972359538231956,1,1,0,1
313,79,95.1,40.7,88.34663581103086,-13.698459852486849,1.02,0,232,0,1,0,0,1,1,100,165.73678305512294,56.59289677662076,1,1,0,1
313,80,95.1,40.7,88.2627838216722,23.75480741634965,1.02,0,232,0,1,0,0,1,1,100,227.78574345973323,69.31912799176763,1,1,0,1
314,81,0,13.68,142.96151654794812,-52.68379328539592,0.98,0,100,0,1,0,0,1,1,100,0.0,0.0,1,1,0,1
315,82,12,0,6.302197233494372,-0.6658992882817971,1.014,0,14,0,1,0,0,1,1,100,8.652190793305635,1.718318890963432,1,1,0,1
315,83,12,0,7.181312241498381,2.168675311189146,1.014,0,14,0,1,0,0,1,1,100,13.99532684069127,5.899811145924033,1,1,0,1
315,84,12,0,6.8204082772135735,-0.7177128609269863,1.014,0,14,0,1,0,0,1,1,100,15.239591728895903,8.084643532186748,1,1,0,1
315,85,12,0,4.580810004472732,-1.5039300399832438,1.014,0,14,0,1,0,0,1,1,100,9.384534271247684,4.139556859084041,1,1,0,1
315,86,12,0,4.544665121566504,-0.3419664119370287,1.014,0,14,0,1,0,0,1,1,100,10.416206828691067,5.9456331553159645,1,1,0,1
315,87,155,0.048,81.15116802230477,-26.656621174421147,1.014,0,182,0,1,0,0,1,1,100,148.3325554681942,39.76143409870565,1,1,0,1
316,88,155,25.22,67.29378493875265,-37.41790763242169,1.017,0,182,0,1,0,0,1,1,100,167.10438339901157,89.15119762173855,1,1,0,1
318,89,400,137.4,221.27787015400827,-37.013419510331005,1.05,0,471,0,1,0,0,1,1,100,377.07916313782334,122.86332136020064,1,1,0,1
321,90,400,108.2,199.84843926504254,-31.660318153444678,1.05,0,471,0,1,0,0,1,1,100,309.8153874091804,25.48570340499282,1,1,0,1
322,91,50,-4.96,12.693631322681902,-15.65435392810032,1.05,0,53,0,1,0,0,1,1,100,52.5330196111463,26.99418334759216,1,1,0,1
322,92,50,-4.96,14.237704379856586,-15.201902183145284,1.05,0,53,0,1,0,0,1,1,100,57.58847985882311,11.992640944663428,1,1,0,1
322,93,50,-4.96,11.782773215323687,-10.997825174871831,1.05,0,53,0,1,0,0,1,1,100,40.53791950689629,20.17589867723848,1,1,0,1
322,94,50,-4.96,11.98586047515273,-8.459008793160319,1.05,0,53,0,1,0,0,1,1,100,46.7406267253682,5.749887367710471,1,1,0,1
322,95,50,-4.96,11.48403536453843,-16.71910456670448,1.05,0,53,0,1,0,0,1,1,100,60.39634072687476,6.271573025733218,1,1,0,1
322,96,50,-4.96,11.430464808642864,-8.254556783195586,1.05,0,53,0,1,0,0,1,1,100,37.83521518111229,36.55860477823417,1,1,0,1
323,97,155,31.79,77.71321286633611,-48.24845228670165,1.05,0,182,0,1,0,0,1,1,100,171.04060273012146,52.82795874252916,1,1,0,1
323,98,155,31.79,91.75656640902162,-66.41984956106171,1.05,0,182,0,1,0,0,1,1,100,134.87768249912187,32.4054957255954,1,1,0,1
323,99,350,71.78,124.31402846239507,-87.98504651989785,1.05,0,412,0,1,0,0,1,1,100,401.82473856257275,147.25416551064697,1,1,0,1
0 / END OF GENERATOR DATA, BEGIN BRANCH DATA
101,102,1,0.003,0.014,0.461,210.0,231.6,240.0,0,0,0,0,1,1,0,1,1
101,103,1,0.055,0.211,0.057,210.0,249.6,264.0,0,0,0,0,1,1,0,1,1
101,105,1,0.022,0.085,0.023,210.0,249.6,264.0,0,0,0,0,1,1,0,1,1
102,104,1,0.033,0.127,0.034,210.0,249.6,264.0,0,0,0,0,1,1,0,1,1
102,106,1,0.05,0.192,0.052,210.0,249.6,264.0,0,0,0,0,1,1,0,1,1
103,109,1,0.031,0.119,0.032,210.0,249.6,264.0,0,0,0,0,1,1,0,1,1
104,109,1,0.027,0.104,0.028,210.0,249.6,264.0,0,0,0,0,1,1,0,1,1
105,110,1,0.023,0.088,0.024,210.0,249.6,264.0,0,0,0,0,1,1,0,1,1
106,110,1,0.014,0.061,2.459,210.0,231.6,240.0,0,0,0,0,1,1,0,1,1
107,108,1,0.016,0.061,0.017,210.0,249.6,264.0,0,0,0,0,1,1,0,1,1
107,203,1,0.042,0.161,0.044,210.0,249.6,264.0,0,0,0,0,1,1,0,1,1
108,109,1,0.043,0.165,0.045,210.0,249.6,264.0,0,0,0,0,1,1,0,1,1
108,110,1,0.043,0.165,0.045,210.0,249.6,264.0,0,0,0,0,1,1,0,1,1
111,113,1,0.006,0.048,0.1,600.0,720.0,750.0,0,0,0,0,1,1,0,1,1
111,114,1,0.005,0.042,0.088,600.0,720.0,750.0,0,0,0,0,1,1,0,1,1
112,113,1,0.006,0.048,0.1,600.0,720.0,750.0,0,0,0,0,1,1,0,1,1
112,123,1,0.012,0.097,0.203,600.0,720.0,750.0,0,0,0,0,1,1,0,1,1
113,123,1,0.011,0.087,0.182,600.0,720.0,750.0,0,0,0,0,1,1,0,1,1
113,215,1,0.01,0.075,0.158,600.0,720.0,750.0,0,0,0,0,1,1,0,1,1
114,116,1,0.005,0.059,0.082,600.0,720.0,750.0,0,0,0,0,1,1,0,1,1
115,116,1,0.002,0.017,0.036,600.0,720.0,750.0,0,0,0,0,1,1,0,1,1
115,121,1,0.006,0.049,0.103,600.0,720.0,750.0,0,0,0,0,1,1,0,1,1
115,121,2,0.006,0.049,0.103,600.0,720.0,750.0,0,0,0,0,1,1,0,1,1
115,124,1,0.007,0.052,0.109,600.0,720.0,750.0,0,0,0,0,1,1,0,1,1
116,117,1,0.003,0.026,0.055,600.0,720.0,750.0,0,0,0,0,1,1,0,1,1
116,119,1,0.003,0.023,0.049,600.0,720.0,750.0,0,0,0,0,1,1,0,1,1
117,118,1,0.002,0.014,0.03,600.0,720.0,750.0,0,0,0,0,1,1,0,1,1
117,122,1,0.014,0.105,0.221,600.0,720.0,750.0,0,0,0,0,1,1,0,1,1
118,121,1,0.003,0.026,0.055,600.0,720.0,750.0,0,0,0,0,1,1,0,1,1
118,121,2,0.003,0.026,0.055,600.0,720.0,750.0,0,0,0,0,1,1,0,1,1
119,120,1,0.005,0.04,0.083,600.0,720.0,750.0,0,0,0,0,1,1,0,1,1
119,120,2,0.005,0.04,0.083,600.0,720.0,750.0,0,0,0,0,1,1,0,1,1
120,123,1,0.003,0.022,0.046,600.0,720.0,750.0,0,0,0,0,1,1,0,1,1
120,123,2,0.003,0.022,0.046,600.0,720.0,750.0,0,0,0,0,1,1,0,1,1
121,122,1,0.009,0.068,0.142,600.0,720.0,750.0,0,0,0,0,1,1,0,1,1
123,217,1,0.01,0.074,0.155,600.0,720.0,750.0,0,0,0,0,1,1,0,1,1
201,202,1,0.003,0.014,0.461,210.0,231.6,240.0,0,0,0,0,1,1,0,1,1
201,203,1,0.055,0.211,0.057,210.0,249.6,264.0,0,0,0,0,1,1,0,1,1
201,205,1,0.022,0.085,0.023,210.0,249.6,264.0,0,0,0,0,1,1,0,1,1
202,204,1,0.033,0.127,0.034,210.0,249.6,264.0,0,0,0,0,1,1,0,1,1
202,206,1,0.05,0.192,0.052,210.0,249.6,264.0,0,0,0,0,1,1,0,1,1
203,209,1,0.031,0.119,0.032,210.0,249.6,264.0,0,0,0,0,1,1,0,1,1
204,209,1,0.027,0.104,0.028,210.0,249.6,264.0,0,0,0,0,1,1,0,1,1
205,210,1,0.023,0.088,0.024,210.0,249.6,264.0,0,0,0,0,1,1,0,1,1
206,210,1,0.014,0.061,2.459,210.0,231.6,240.0,0,0,0,0,1,1,0,1,1
207,208,1,0.016,0.061,0.017,210.0,249.6,264.0,0,0,0,0,1,1,0,1,1
208,209,1,0.043,0.165,0.045,210.0,249.6,264.0,0,0,0,0,1,1,0,1,1
208,210,1,0.043,0.165,0.045,210.0,249.6,264.0,0,0,0,0,1,1,0,1,1
211,213,1,0.006,0.048,0.1,600.0,720.0,750.0,0,0,0,0,1,1,0,1,1
211,214,1,0.005,0.042,0.088,600.0,720.0,750.0,0,0,0,0,1,1,0,1,1
212,213,1,0.006,0.048,0.1,600.0,720.0,750.0,0,0,0,0,1,1,0,1,1
212,223,1,0.012,0.097,0.203,600.0,720.0,750.0,0,0,0,0,1,1,0,1,1
213,223,1,0.011,0.087,0.182,600.0,720.0,750.0,0,0,0,0,1,1,0,1,1
214,216,1,0.005,0.059,0.082,600.0,720.0,750.0,0,0,0,0,1,1,0,1,1
215,216,1,0.002,0.017,0.036,600.0,720.0,750.0,0,0,0,0,1,1,0,1,1
215,221,1,0.006,0.049,0.103,600.0,720.0,750.0,0,0,0,0,1,1,0,1,1
215,221,2,0.006,0.049,0.103,600.0,720.0,750.0,0,0,0,0,1,1,0,1,1
215,224,1,0.007,0.052,0.109,600.0,720.0,750.0,0,0,0,0,1,1,0,1,1
216,217,1,0.003,0.026,0.055,600.0,720.0,750.0,0,0,0,0,1,1,0,1,1
216,219,1,0.003,0.023,0.049,600.0,720.0,750.0,0,0,0,0,1,1,0,1,1
217,218,1,0.002,0.014,0.03,600.0,720.0,750.0,0,0,0,0,1,1,0,1,1
217,222,1,0.014,0.105,0.221,600.0,720.0,750.0,0,0,0,0,1,1,0,1,1
218,221,1,0.003,0.026,0.055,600.0,720.0,750.0,0,0,0,0,1,1,0,1,1
218,221,2,0.003,0.026,0.055,600.0,720.0,750.0,0,0,0,0,1,1,0,1,1
219,220,1,0.005,0.04,0.083,600.0,720.0,750.0,0,0,0,0,1,1,0,1,1
219,220,2,0.005,0.04,0.083,600.0,720.0,750.0,0,0,0,0,1,1,0,1,1
220,223,1,0.003,0.022,0.046,600.0,720.0,750.0,0,0,0,0,1,1,0,1,1
220,223,2,0.003,0.022,0.046,600.0,720.0,750.0,0,0,0,0,1,1,0,1,1
221,222,1,0.009,0.068,0.142,600.0,720.0,750.0,0,0,0,0,1,1,0,1,1
301,302,1,0.003,0.014,0.461,210.0,231.6,240.0,0,0,0,0,1,1,0,1,1
301,303,1,0.055,0.211,0.057,210.0,249.6,264.0,0,0,0,0,1,1,0,1,1
301,305,1,0.022,0.085,0.023,210.0,249.6,264.0,0,0,0,0,1,1,0,1,1
302,304,1,0.033,0.127,0.034,210.0,249.6,264.0,0,0,0,0,1,1,0,1,1
302,306,1,0.05,0.192,0.052,210.0,249.6,264.0,0,0,0,0,1,1,0,1,1
303,309,1,0.031,0.119,0.032,210.0,249.6,264.0,0,0,0,0,1,1,0,1,1
304,309,1,0.027,0.104,0.028,210.0,249.6,264.0,0,0,0,0,1,1,0,1,1
305,310,1,0.023,0.088,0.024,210.0,249.6,264.0,0,0,0,0,1,1,0,1,1
306,310,1,0.014,0.061,2.459,210.0,231.6,240.0,0,0,0,0,1,1,0,1,1
307,308,1,0.016,0.061,0.017,210.0,249.6,264.0,0,0,0,0,1,1,0,1,1
308,309,1,0.043,0.165,0.045,210.0,249.6,264.0,0,0,0,0,1,1,0,1,1
308,310,1,0.043,0.165,0.045,210.0,249.6,264.0,0,0,0,0,1,1,0,1,1
311,313,1,0.006,0.048,0.1,600.0,720.0,750.0,0,0,0,0,1,1,0,1,1
311,314,1,0.005,0.042,0.088,600.0,720.0,750.0,0,0,0,0,1,1,0,1,1
312,313,1,0.006,0.048,0.1,600.0,720.0,750.0,0,0,0,0,1,1,0,1,1
312,323,1,0.012,0.097,0.203,600.0,720.0,750.0,0,0,0,0,1,1,0,1,1
313,323,1,0.011,0.087,0.182,600.0,720.0,750.0,0,0,0,0,1,1,0,1,1
314,316,1,0.005,0.059,0.082,600.0,720.0,750.0,0,0,0,0,1,1,0,1,1
315,316,1,0.002,0.017,0.036,600.0,720.0,750.0,0,0,0,0,1,1,0,1,1
315,321,1,0.006,0.049,0.103,600.0,720.0,750.0,0,0,0,0,1,1,0,1,1
315,321,2,0.006,0.049,0.103,600.0,720.0,750.0,0,0,0,0,1,1,0,1,1
315,324,1,0.007,0.052,0.109,600.0,720.0,750.0,0,0,0,0,1,1,0,1,1
316,317,1,0.003,0.026,0.055,600.0,720.0,750.0,0,0,0,0,1,1,0,1,1
316,319,1,0.003,0.023,0.049,600.0,720.0,750.0,0,0,0,0,1,1,0,1,1
317,318,1,0.002,0.014,0.03,600.0,720.0,750.0,0,0,0,0,1,1,0,1,1
317,322,1,0.014,0.105,0.221,600.0,720.0,750.0,0,0,0,0,1,1,0,1,1
318,223,1,0.013,0.104,0.218,600.0,720.0,750.0,0,0,0,0,1,1,0,1,1
318,321,1,0.003,0.026,0.055,600.0,720.0,750.0,0,0,0,0,1,1,0,1,1
318,321,2,0.003,0.026,0.055,600.0,720.0,750.0,0,0,0,0,1,1,0,1,1
319,320,1,0.005,0.04,0.083,600.0,720.0,750.0,0,0,0,0,1,1,0,1,1
319,320,2,0.005,0.04,0.083,600.0,720.0,750.0,0,0,0,0,1,1,0,1,1
320,323,1,0.003,0.022,0.046,600.0,720.0,750.0,0,0,0,0,1,1,0,1,1
320,323,2,0.003,0.022,0.046,600.0,720.0,750.0,0,0,0,0,1,1,0,1,1
321,322,1,0.009,0.068,0.142,600.0,720.0,750.0,0,0,0,0,1,1,0,1,1
323,325,1,0,0.009,0,866.4,1071.6,1071.6,0,0,0,0,1,1,0,1,1
325,121,1,0.012,0.097,0.203,600.0,720.0,750.0,0,0,0,0,1,1,0,1,1
0 / END OF BRANCH DATA, BEGIN TRANSFORMER DATA
  103 ,  124 , 0,  1 , 1, 1, 1, 0, 0, 2, '            ',  1 , 1, 1
   0.002000 ,  0.084000 ,  100.000000
   1.015000 , 0,  0.000000 ,  400.000000 ,  510.000000 ,  600.000000 , 0, 0,  1.10 ,  0.90 ,  1.10 ,  0.90 , 33, 0, 0, 0
   1.000000, 0
  109 ,  111 , 0,  1 , 1, 1, 1, 0, 0, 2, '            ',  1 , 1, 1
   0.002000 ,  0.084000 ,  100.000000
   1.030000 , 0,  0.000000 ,  400.000000 ,  510.000000 ,  600.000000 , 0, 0,  1.10 ,  0.90 ,  1.10 ,  0.90 , 33, 0, 0, 0
   1.000000, 0
  109 ,  112 , 0,  1 , 1, 1, 1, 0, 0, 2, '            ',  1 , 1, 1
   0.002000 ,  0.084000 ,  100.000000
   1.030000 , 0,  0.000000 ,  400.000000 ,  510.000000 ,  600.000000 , 0, 0,  1.10 ,  0.90 ,  1.10 ,  0.90 , 33, 0, 0, 0
   1.000000, 0
  110 ,  111 , 0,  1 , 1, 1, 1, 0, 0, 2, '            ',  1 , 1, 1
   0.002000 ,  0.084000 ,  100.000000
   1.015000 , 0,  0.000000 ,  400.000000 ,  510.000000 ,  600.000000 , 0, 0,  1.10 ,  0.90 ,  1.10 ,  0.90 , 33, 0, 0, 0
   1.000000, 0
  110 ,  112 , 0,  1 , 1, 1, 1, 0, 0, 2, '            ',  1 , 1, 1
   0.002000 ,  0.084000 ,  100.000000
   1.015000 , 0,  0.000000 ,  400.000000 ,  510.000000 ,  600.000000 , 0, 0,  1.10 ,  0.90 ,  1.10 ,  0.90 , 33, 0, 0, 0
   1.000000, 0
  203 ,  224 , 0,  1 , 1, 1, 1, 0, 0, 2, '            ',  1 , 1, 1
   0.002000 ,  0.084000 ,  100.000000
   1.015000 , 0,  0.000000 ,  400.000000 ,  510.000000 ,  600.000000 , 0, 0,  1.10 ,  0.90 ,  1.10 ,  0.90 , 33, 0, 0, 0
   1.000000, 0
  209 ,  211 , 0,  1 , 1, 1, 1, 0, 0, 2, '            ',  1 , 1, 1
   0.002000 ,  0.084000 ,  100.000000
   1.030000 , 0,  0.000000 ,  400.000000 ,  510.000000 ,  600.000000 , 0, 0,  1.10 ,  0.90 ,  1.10 ,  0.90 , 33, 0, 0, 0
   1.000000, 0
  209 ,  212 , 0,  1 , 1, 1, 1, 0, 0, 2, '            ',  1 , 1, 1
   0.002000 ,  0.084000 ,  100.000000
   1.030000 , 0,  0.000000 ,  400.000000 ,  510.000000 ,  600.000000 , 0, 0,  1.10 ,  0.90 ,  1.10 ,  0.90 , 33, 0, 0, 0
   1.000000, 0
  210 ,  211 , 0,  1 , 1, 1, 1, 0, 0, 2, '            ',  1 , 1, 1
   0.002000 ,  0.084000 ,  100.000000
   1.015000 , 0,  0.000000 ,  400.000000 ,  510.000000 ,  600.000000 , 0, 0,  1.10 ,  0.90 ,  1.10 ,  0.90 , 33, 0, 0, 0
   1.000000, 0
  210 ,  212 , 0,  1 , 1, 1, 1, 0, 0, 2, '            ',  1 , 1, 1
   0.002000 ,  0.084000 ,  100.000000
   1.015000 , 0,  0.000000 ,  400.000000 ,  510.000000 ,  600.000000 , 0, 0,  1.10 ,  0.90 ,  1.10 ,  0.90 , 33, 0, 0, 0
   1.000000, 0
  303 ,  324 , 0,  1 , 1, 1, 1, 0, 0, 2, '            ',  1 , 1, 1
   0.002000 ,  0.084000 ,  100.000000
   1.015000 , 0,  0.000000 ,  400.000000 ,  510.000000 ,  600.000000 , 0, 0,  1.10 ,  0.90 ,  1.10 ,  0.90 , 33, 0, 0, 0
   1.000000, 0
  309 ,  311 , 0,  1 , 1, 1, 1, 0, 0, 2, '            ',  1 , 1, 1
   0.002000 ,  0.084000 ,  100.000000
   1.030000 , 0,  0.000000 ,  400.000000 ,  510.000000 ,  600.000000 , 0, 0,  1.10 ,  0.90 ,  1.10 ,  0.90 , 33, 0, 0, 0
   1.000000, 0
  309 ,  312 , 0,  1 , 1, 1, 1, 0, 0, 2, '            ',  1 , 1, 1
   0.002000 ,  0.084000 ,  100.000000
   1.030000 , 0,  0.000000 ,  400.000000 ,  510.000000 ,  600.000000 , 0, 0,  1.10 ,  0.90 ,  1.10 ,  0.90 , 33, 0, 0, 0
   1.000000, 0
  310 ,  311 , 0,  1 , 1, 1, 1, 0, 0, 2, '            ',  1 , 1, 1
   0.002000 ,  0.084000 ,  100.000000
   1.015000 , 0,  0.000000 ,  400.000000 ,  510.000000 ,  600.000000 , 0, 0,  1.10 ,  0.90 ,  1.10 ,  0.90 , 33, 0, 0, 0
   1.000000, 0
  310 ,  312 , 0,  1 , 1, 1, 1, 0, 0, 2, '            ',  1 , 1, 1
   0.002000 ,  0.084000 ,  100.000000
   1.015000 , 0,  0.000000 ,  400.000000 ,  510.000000 ,  600.000000 , 0, 0,  1.10 ,  0.90 ,  1.10 ,  0.90 , 33, 0, 0, 0
   1.000000, 0
0 / END OF TRANSFORMER DATA, BEGIN AREA DATA
0 / END OF AREA DATA, BEGIN TWO-TERMINAL DC DATA
0 / END OF TWO-TERMINAL DC DATA, BEGIN VSC DC LINE DATA
0 / END OF VSC DC LINE DATA, BEGIN SWITCHED SHUNT DATA
0 / END OF SWITCHED SHUNT DATA, BEGIN IMPEDANCE CORRECTION DATA
0 / END OF IMPEDANCE CORRECTION DATA, BEGIN MULTI-TERMINAL DC DATA
0 / END OF MULTI-TERMINAL DC DATA, BEGIN MULTI-SECTION LINE DATA
0 / END OF MULTI-SECTION LINE DATA, BEGIN ZONE DATA
0 / END OF ZONE DATA, BEGIN INTER-AREA TRANSFER DATA
0 / END OF INTER-AREA TRANSFER DATA, BEGIN OWNER DATA
0 / END OF OWNER DATA, BEGIN FACTS CONTROL DEVICE DATA
0 / END OF FACTS CONTROL DEVICE DATA
0 / END OF SWITCHED SHUNT DATA, BEGIN GNE DATA
0 / END OF GNE DATA, BEGIN INDUCTION MACHINE DATA
0 / END OF INDUCTION MACHINE DATA
Q 
